
 OpenBabel01172420503D

 22 21  0  0  1  0  0  0  0  0999 V2000
    3.2505    0.2406    3.1124 O   0  0  0  0  0  0  0  0  0  0  0  0
    2.5898    1.2477    2.3593 C   0  0  0  0  0  0  0  0  0  0  0  0
    2.9727    1.1941    0.8703 C   0  0  2  0  0  0  0  0  0  0  0  0
    2.5234   -0.0858    0.1038 C   0  0  2  0  0  0  0  0  0  0  0  0
    3.5288   -1.5785    0.4672 S   0  0  0  0  0  0  0  0  0  0  0  0
    1.0406   -0.4697    0.2849 C   0  0  0  0  0  0  0  0  0  0  0  0
    0.0707    0.5801   -0.2442 C   0  0  0  0  0  0  0  0  0  0  0  0
    4.4750    1.4814    0.7037 C   0  0  0  0  0  0  0  0  0  0  0  0
    3.1466    0.4735    4.0507 H   0  0  0  0  0  0  0  0  0  0  0  0
    2.8730    2.2217    2.7741 H   0  0  0  0  0  0  0  0  0  0  0  0
    1.5117    1.1359    2.5018 H   0  0  0  0  0  0  0  0  0  0  0  0
    2.4520    2.0360    0.3944 H   0  0  0  0  0  0  0  0  0  0  0  0
    2.6845    0.1050   -0.9643 H   0  0  0  0  0  0  0  0  0  0  0  0
    3.4449   -1.4750    1.8053 H   0  0  0  0  0  0  0  0  0  0  0  0
    0.8310   -1.4001   -0.2597 H   0  0  0  0  0  0  0  0  0  0  0  0
    0.8135   -0.6719    1.3372 H   0  0  0  0  0  0  0  0  0  0  0  0
    0.2255    0.7495   -1.3146 H   0  0  0  0  0  0  0  0  0  0  0  0
    0.1767    1.5358    0.2784 H   0  0  0  0  0  0  0  0  0  0  0  0
   -0.9619    0.2380   -0.1051 H   0  0  0  0  0  0  0  0  0  0  0  0
    5.0994    0.7643    1.2409 H   0  0  0  0  0  0  0  0  0  0  0  0
    4.7160    2.4763    1.0934 H   0  0  0  0  0  0  0  0  0  0  0  0
    4.7613    1.4633   -0.3534 H   0  0  0  0  0  0  0  0  0  0  0  0
  1  2  1  0  0  0  0
  1  9  1  0  0  0  0
  2 10  1  0  0  0  0
  2 11  1  0  0  0  0
  3  8  1  0  0  0  0
  3  4  1  0  0  0  0
  3  2  1  0  0  0  0
  3 12  1  6  0  0  0
  4  6  1  0  0  0  0
  4  5  1  0  0  0  0
  4 13  1  1  0  0  0
  5 14  1  0  0  0  0
  6  7  1  0  0  0  0
  6 15  1  0  0  0  0
  6 16  1  0  0  0  0
  7 17  1  0  0  0  0
  7 18  1  0  0  0  0
  7 19  1  0  0  0  0
  8 20  1  0  0  0  0
  8 21  1  0  0  0  0
  8 22  1  0  0  0  0
M  END
$$$$
