
 OpenBabel01172420503D

 22 21  0  0  1  0  0  0  0  0999 V2000
    5.1189    4.1156   -2.8447 O   0  0  0  0  0  0  0  0  0  0  0  0
    4.6024    3.3410   -1.7656 C   0  0  0  0  0  0  0  0  0  0  0  0
    3.0620    3.3165   -1.8292 C   0  0  1  0  0  0  0  0  0  0  0  0
    2.4409    2.3819   -0.7521 C   0  0  2  0  0  0  0  0  0  0  0  0
    3.0564    0.6537   -0.8969 S   0  0  0  0  0  0  0  0  0  0  0  0
    0.8953    2.3670   -0.7064 C   0  0  0  0  0  0  0  0  0  0  0  0
    0.1913    1.7976   -1.9322 C   0  0  0  0  0  0  0  0  0  0  0  0
    2.5368    4.7572   -1.6920 C   0  0  0  0  0  0  0  0  0  0  0  0
    6.0892    4.0598   -2.7952 H   0  0  0  0  0  0  0  0  0  0  0  0
    4.9476    3.7851   -0.8262 H   0  0  0  0  0  0  0  0  0  0  0  0
    5.0353    2.3431   -1.8580 H   0  0  0  0  0  0  0  0  0  0  0  0
    2.7751    2.9686   -2.8318 H   0  0  0  0  0  0  0  0  0  0  0  0
    2.7845    2.7305    0.2304 H   0  0  0  0  0  0  0  0  0  0  0  0
    2.6725    0.4600   -2.1685 H   0  0  0  0  0  0  0  0  0  0  0  0
    0.5269    3.3850   -0.5352 H   0  0  0  0  0  0  0  0  0  0  0  0
    0.5675    1.7977    0.1740 H   0  0  0  0  0  0  0  0  0  0  0  0
    0.5545    2.2478   -2.8602 H   0  0  0  0  0  0  0  0  0  0  0  0
   -0.8847    1.9926   -1.8652 H   0  0  0  0  0  0  0  0  0  0  0  0
    0.3142    0.7136   -1.9989 H   0  0  0  0  0  0  0  0  0  0  0  0
    2.6743    5.1297   -0.6705 H   0  0  0  0  0  0  0  0  0  0  0  0
    1.4738    4.8201   -1.9408 H   0  0  0  0  0  0  0  0  0  0  0  0
    3.0560    5.4441   -2.3685 H   0  0  0  0  0  0  0  0  0  0  0  0
  1  2  1  0  0  0  0
  1  9  1  0  0  0  0
  2  3  1  0  0  0  0
  2 10  1  0  0  0  0
  2 11  1  0  0  0  0
  3  8  1  0  0  0  0
  3 12  1  6  0  0  0
  4  6  1  0  0  0  0
  4  5  1  0  0  0  0
  4  3  1  0  0  0  0
  4 13  1  1  0  0  0
  5 14  1  0  0  0  0
  6  7  1  0  0  0  0
  6 15  1  0  0  0  0
  6 16  1  0  0  0  0
  7 17  1  0  0  0  0
  7 18  1  0  0  0  0
  7 19  1  0  0  0  0
  8 20  1  0  0  0  0
  8 21  1  0  0  0  0
  8 22  1  0  0  0  0
M  END
$$$$
