957
  -OEChem-08062100073D

 27 26  0     0  0  0  0  0  0999 V2000
    4.9442   -0.3976   -0.0463 O   0  0  0  0  0  0  0  0  0  0  0  0
    0.0273   -0.3598    0.0738 C   0  0  0  0  0  0  0  0  0  0  0  0
   -1.2646    0.4624    0.0583 C   0  0  0  0  0  0  0  0  0  0  0  0
    1.2942    0.4958    0.0044 C   0  0  0  0  0  0  0  0  0  0  0  0
   -2.5319   -0.3950    0.0532 C   0  0  0  0  0  0  0  0  0  0  0  0
    2.5500   -0.3747   -0.0005 C   0  0  0  0  0  0  0  0  0  0  0  0
   -3.7874    0.4741   -0.0356 C   0  0  0  0  0  0  0  0  0  0  0  0
    3.8175    0.4679   -0.0278 C   0  0  0  0  0  0  0  0  0  0  0  0
   -5.0492   -0.3730   -0.0796 C   0  0  0  0  0  0  0  0  0  0  0  0
    0.0503   -0.9725    0.9835 H   0  0  0  0  0  0  0  0  0  0  0  0
    0.0176   -1.0547   -0.7753 H   0  0  0  0  0  0  0  0  0  0  0  0
   -1.2784    1.1276    0.9306 H   0  0  0  0  0  0  0  0  0  0  0  0
   -1.2632    1.1063   -0.8301 H   0  0  0  0  0  0  0  0  0  0  0  0
    1.3198    1.1783    0.8623 H   0  0  0  0  0  0  0  0  0  0  0  0
    1.2714    1.1141   -0.9010 H   0  0  0  0  0  0  0  0  0  0  0  0
   -2.5656   -1.0062    0.9629 H   0  0  0  0  0  0  0  0  0  0  0  0
   -2.5025   -1.0845   -0.7992 H   0  0  0  0  0  0  0  0  0  0  0  0
    2.5379   -1.0481   -0.8666 H   0  0  0  0  0  0  0  0  0  0  0  0
    2.5665   -1.0240    0.8838 H   0  0  0  0  0  0  0  0  0  0  0  0
   -3.8347    1.1483    0.8274 H   0  0  0  0  0  0  0  0  0  0  0  0
   -3.7454    1.0998   -0.9347 H   0  0  0  0  0  0  0  0  0  0  0  0
    3.8553    1.1097   -0.9137 H   0  0  0  0  0  0  0  0  0  0  0  0
    3.8880    1.1005    0.8622 H   0  0  0  0  0  0  0  0  0  0  0  0
   -5.1386   -0.9902    0.8201 H   0  0  0  0  0  0  0  0  0  0  0  0
   -5.0475   -1.0346   -0.9517 H   0  0  0  0  0  0  0  0  0  0  0  0
   -5.9342    0.2680   -0.1411 H   0  0  0  0  0  0  0  0  0  0  0  0
    4.8901   -0.9332   -0.8561 H   0  0  0  0  0  0  0  0  0  0  0  0
  1  8  1  0  0  0  0
  1 27  1  0  0  0  0
  2  3  1  0  0  0  0
  2  4  1  0  0  0  0
  2 10  1  0  0  0  0
  2 11  1  0  0  0  0
  3  5  1  0  0  0  0
  3 12  1  0  0  0  0
  3 13  1  0  0  0  0
  4  6  1  0  0  0  0
  4 14  1  0  0  0  0
  4 15  1  0  0  0  0
  5  7  1  0  0  0  0
  5 16  1  0  0  0  0
  5 17  1  0  0  0  0
  6  8  1  0  0  0  0
  6 18  1  0  0  0  0
  6 19  1  0  0  0  0
  7  9  1  0  0  0  0
  7 20  1  0  0  0  0
  7 21  1  0  0  0  0
  8 22  1  0  0  0  0
  8 23  1  0  0  0  0
  9 24  1  0  0  0  0
  9 25  1  0  0  0  0
  9 26  1  0  0  0  0
