
 OpenBabel01052401033D

 17 17  0  0  0  0  0  0  0  0999 V2000
    1.5795   -0.9332    0.7079 C   0  0  0  0  0  0  0  0  0  0  0  0
    2.4823    0.0370   -0.0075 C   0  0  0  0  0  0  0  0  0  0  0  0
    2.6282    0.0021   -1.2268 O   0  0  0  0  0  0  0  0  0  0  0  0
    3.2338    1.0371    0.8005 C   0  0  0  0  0  0  0  0  0  0  0  0
    4.4264    1.5534    0.2790 C   0  0  0  0  0  0  0  0  0  0  0  0
    5.1686    2.4816    1.0111 C   0  0  0  0  0  0  0  0  0  0  0  0
    4.7125    2.9093    2.2563 C   0  0  0  0  0  0  0  0  0  0  0  0
    3.5189    2.4092    2.7754 C   0  0  0  0  0  0  0  0  0  0  0  0
    2.7792    1.4725    2.0512 C   0  0  0  0  0  0  0  0  0  0  0  0
    1.2273   -1.6853   -0.0049 H   0  0  0  0  0  0  0  0  0  0  0  0
    0.7096   -0.4187    1.1215 H   0  0  0  0  0  0  0  0  0  0  0  0
    2.1361   -1.4511    1.4939 H   0  0  0  0  0  0  0  0  0  0  0  0
    4.7849    1.2267   -0.6953 H   0  0  0  0  0  0  0  0  0  0  0  0
    6.0992    2.8715    0.6063 H   0  0  0  0  0  0  0  0  0  0  0  0
    5.2888    3.6371    2.8243 H   0  0  0  0  0  0  0  0  0  0  0  0
    3.1611    2.7550    3.7419 H   0  0  0  0  0  0  0  0  0  0  0  0
    1.8459    1.1089    2.4715 H   0  0  0  0  0  0  0  0  0  0  0  0
  1  2  1  0  0  0  0
  1 10  1  0  0  0  0
  1 11  1  0  0  0  0
  1 12  1  0  0  0  0
  2  3  2  0  0  0  0
  2  4  1  0  0  0  0
  4  5  2  0  0  0  0
  4  9  1  0  0  0  0
  5  6  1  0  0  0  0
  5 13  1  0  0  0  0
  6  7  2  0  0  0  0
  6 14  1  0  0  0  0
  7  8  1  0  0  0  0
  7 15  1  0  0  0  0
  8  9  2  0  0  0  0
  8 16  1  0  0  0  0
  9 17  1  0  0  0  0
M  END
$$$$
