
 OpenBabel03192317493D

 12 12  0  0  0  0  0  0  0  0999 V2000
   -0.1849   -1.4360    0.0031 B   0  5  0  0  0  0  0  0  0  0  0  0
    1.1990   -0.8106    0.0033 N   0  3  0  0  0  0  0  0  0  0  0  0
    1.3352    0.5584    0.0036 B   0  5  0  0  0  0  0  0  0  0  0  0
    0.1017    1.4441    0.0036 N   0  3  0  0  0  0  0  0  0  0  0  0
   -1.1520    0.8776    0.0035 B   0  5  0  0  0  0  0  0  0  0  0  0
   -1.3023   -0.6335    0.0031 N   0  3  0  0  0  0  0  0  0  0  0  0
   -0.2998   -2.6123    0.0028 H   0  0  0  0  0  0  0  0  0  0  0  0
    2.0343   -1.4127    0.0032 H   0  0  0  0  0  0  0  0  0  0  0  0
    2.4114    1.0470    0.0037 H   0  0  0  0  0  0  0  0  0  0  0  0
    0.2054    2.4687    0.0039 H   0  0  0  0  0  0  0  0  0  0  0  0
   -2.1133    1.5653    0.0035 H   0  0  0  0  0  0  0  0  0  0  0  0
   -2.2415   -1.0559    0.0030 H   0  0  0  0  0  0  0  0  0  0  0  0
  1  2  1  0  0  0  0
  1  6  2  0  0  0  0
  1  7  1  0  0  0  0
  2  3  2  0  0  0  0
  2  8  1  0  0  0  0
  3  4  1  0  0  0  0
  3  9  1  0  0  0  0
  4  5  2  0  0  0  0
  4 10  1  0  0  0  0
  5  6  1  0  0  0  0
  5 11  1  0  0  0  0
  6 12  1  0  0  0  0
M  CHG  6   1  -1   2   1   3  -1   4   1   5  -1   6   1
M  END
$$$$
