
 OpenBabel02152217443D

 13 12  0  0  0  0  0  0  0  0999 V2000
    1.0525   -0.0790    0.0312 C   0  0  0  0  0  0  0  0  0  0  0  0
    2.5721   -0.0781    0.0262 C   0  0  0  0  0  0  0  0  0  0  0  0
    3.1439   -0.3261    1.4170 C   0  0  0  0  0  0  0  0  0  0  0  0
    4.6754   -0.3382    1.4849 C   0  0  0  0  0  0  0  0  0  0  0  0
    5.2917   -0.1449    0.4009 O   0  0  0  0  0  0  0  0  0  0  0  0
    5.1380   -0.5448    2.6431 O   0  5  0  0  0  0  0  0  0  0  0  0
    0.6727    0.1012   -0.9794 H   0  0  0  0  0  0  0  0  0  0  0  0
    0.6612    0.7059    0.6860 H   0  0  0  0  0  0  0  0  0  0  0  0
    0.6613   -1.0419    0.3743 H   0  0  0  0  0  0  0  0  0  0  0  0
    2.9285    0.8853   -0.3571 H   0  0  0  0  0  0  0  0  0  0  0  0
    2.9285   -0.8497   -0.6665 H   0  0  0  0  0  0  0  0  0  0  0  0
    2.7850   -1.2912    1.7961 H   0  0  0  0  0  0  0  0  0  0  0  0
    2.7850    0.4484    2.1063 H   0  0  0  0  0  0  0  0  0  0  0  0
  1  2  1  0  0  0  0
  1  7  1  0  0  0  0
  1  8  1  0  0  0  0
  1  9  1  0  0  0  0
  2  3  1  0  0  0  0
  2 10  1  0  0  0  0
  2 11  1  0  0  0  0
  3  4  1  0  0  0  0
  3 12  1  0  0  0  0
  3 13  1  0  0  0  0
  4  5  2  0  0  0  0
  4  6  1  0  0  0  0
M  CHG  1   6  -1
M  END
$$$$