
 OpenBabel10062413403D

 27 26  0  0  0  0  0  0  0  0999 V2000
    1.1284   -0.2016    0.0184 C   0  0  0  0  0  0  0  0  0  0  0  0
    2.6268   -0.0833   -0.0766 C   0  0  0  0  0  0  0  0  0  0  0  0
    3.2619    0.8843   -0.7728 C   0  0  0  0  0  0  0  0  0  0  0  0
    2.5515    1.9696   -1.5417 C   0  0  0  0  0  0  0  0  0  0  0  0
    3.4658    2.9294   -2.3165 C   0  0  0  0  0  0  0  0  0  0  0  0
    2.6572    4.0469   -2.9533 C   0  0  0  0  0  0  0  0  0  0  0  0
    2.1942    4.0758   -4.2180 C   0  0  0  0  0  0  0  0  0  0  0  0
    2.3609    3.0233   -5.2420 C   0  0  0  0  0  0  0  0  0  0  0  0
    1.8786    3.1529   -6.3636 O   0  0  0  0  0  0  0  0  0  0  0  0
    2.3357    5.2161   -2.0571 C   0  0  0  0  0  0  0  0  0  0  0  0
    3.3932   -1.1349    0.6787 C   0  0  0  0  0  0  0  0  0  0  0  0
    0.5967    0.5823   -0.5275 H   0  0  0  0  0  0  0  0  0  0  0  0
    0.8122   -0.1397    1.0648 H   0  0  0  0  0  0  0  0  0  0  0  0
    0.8016   -1.1634   -0.3899 H   0  0  0  0  0  0  0  0  0  0  0  0
    4.3515    0.8977   -0.7779 H   0  0  0  0  0  0  0  0  0  0  0  0
    1.9476    2.5501   -0.8325 H   0  0  0  0  0  0  0  0  0  0  0  0
    1.8687    1.4979   -2.2599 H   0  0  0  0  0  0  0  0  0  0  0  0
    4.0412    2.3791   -3.0687 H   0  0  0  0  0  0  0  0  0  0  0  0
    4.2156    3.3668   -1.6444 H   0  0  0  0  0  0  0  0  0  0  0  0
    1.6097    4.9240   -4.5707 H   0  0  0  0  0  0  0  0  0  0  0  0
    2.9146    2.1214   -4.9481 H   0  0  0  0  0  0  0  0  0  0  0  0
    2.7670    5.0964   -1.0578 H   0  0  0  0  0  0  0  0  0  0  0  0
    1.2513    5.3193   -1.9358 H   0  0  0  0  0  0  0  0  0  0  0  0
    2.7345    6.1449   -2.4801 H   0  0  0  0  0  0  0  0  0  0  0  0
    2.7145   -1.8393    1.1753 H   0  0  0  0  0  0  0  0  0  0  0  0
    4.0166   -0.6828    1.4563 H   0  0  0  0  0  0  0  0  0  0  0  0
    4.0259   -1.7191    0.0020 H   0  0  0  0  0  0  0  0  0  0  0  0
  1  2  1  0  0  0  0
  1 12  1  0  0  0  0
  1 13  1  0  0  0  0
  1 14  1  0  0  0  0
  2  3  2  0  0  0  0
  2 11  1  0  0  0  0
  3  4  1  0  0  0  0
  3 15  1  0  0  0  0
  4  5  1  0  0  0  0
  4 16  1  0  0  0  0
  4 17  1  0  0  0  0
  5  6  1  0  0  0  0
  5 18  1  0  0  0  0
  5 19  1  0  0  0  0
  6  7  2  0  0  0  0
  6 10  1  0  0  0  0
  7  8  1  0  0  0  0
  7 20  1  0  0  0  0
  8  9  2  0  0  0  0
  8 21  1  0  0  0  0
 10 22  1  0  0  0  0
 10 23  1  0  0  0  0
 10 24  1  0  0  0  0
 11 25  1  0  0  0  0
 11 26  1  0  0  0  0
 11 27  1  0  0  0  0
M  END
$$$$
