cysteine
 OpenBabel07232223113D

 14 13  0     0  0  0  0  0  0999 V2000
    2.9174   -1.2128   -0.6714 N   0  0  0  0  0  0  0  0  0  0  0  0
    2.4662    0.0816   -0.0655 C   0  0  0  0  0  0  0  0  0  0  0  0
    0.9327    0.0989   -0.0685 C   0  0  0  0  0  0  0  0  0  0  0  0
    0.2326    1.0966   -0.0183 O   0  0  0  0  0  0  0  0  0  0  0  0
    0.4340   -1.1664   -0.0955 O   0  0  0  0  0  0  0  0  0  0  0  0
    3.0115    1.3197   -0.7857 C   0  0  0  0  0  0  0  0  0  0  0  0
    4.8377    1.3410   -0.7835 S   0  0  0  0  0  0  0  0  0  0  0  0
    3.9454   -1.1987   -0.6559 H   0  0  0  0  0  0  0  0  0  0  0  0
    2.7078   -1.1806   -1.6766 H   0  0  0  0  0  0  0  0  0  0  0  0
    2.7748    0.0846    0.9868 H   0  0  0  0  0  0  0  0  0  0  0  0
    1.2145   -1.7739   -0.1538 H   0  0  0  0  0  0  0  0  0  0  0  0
    2.6604    2.2362   -0.2996 H   0  0  0  0  0  0  0  0  0  0  0  0
    2.6695    1.3486   -1.8262 H   0  0  0  0  0  0  0  0  0  0  0  0
    4.9925    1.4486    0.5460 H   0  0  0  0  0  0  0  0  0  0  0  0
  1  8 1.00  0  0  0  0
  1  9 1.00  0  0  0  0
  1  2 1.00  0  0  0  0
  2  6 1.00  0  0  0  0
  2  3 1.00  0  0  0  0
  2 10 1.00  0  0  0  0
  3  4 2.00  0  0  0  0
  3  5 1.00  0  0  0  0
  5 11 1.00  0  0  0  0
  6  7 1.00  0  0  0  0
  6 12 1.00  0  0  0  0
  6 13 1.00  0  0  0  0
  7 14 1.00  0  0  0  0
M  END

