cysteine
 OpenBabel06142306093D

 14 13  0     0  0  0  0  0  0999 V2000
    2.8740    1.3157    0.6790 N   0  0  0  0  0  0  0  0  0  0  0  0
    2.4142    0.0154    0.0958 C   0  0  0  0  0  0  0  0  0  0  0  0
    0.8792   -0.0026    0.1186 C   0  0  0  0  0  0  0  0  0  0  0  0
    0.1809   -0.9999    0.1026 O   0  0  0  0  0  0  0  0  0  0  0  0
    0.3804    1.2632    0.1292 O   0  0  0  0  0  0  0  0  0  0  0  0
    2.9669   -1.2151    0.8239 C   0  0  0  0  0  0  0  0  0  0  0  0
    4.7929   -1.2397    0.8023 S   0  0  0  0  0  0  0  0  0  0  0  0
    3.9020    1.2802    0.6938 H   0  0  0  0  0  0  0  0  0  0  0  0
    2.6354    1.3179    1.6783 H   0  0  0  0  0  0  0  0  0  0  0  0
    2.7089   -0.0022   -0.9605 H   0  0  0  0  0  0  0  0  0  0  0  0
    1.1579    1.8743    0.1587 H   0  0  0  0  0  0  0  0  0  0  0  0
    2.6093   -2.1364    0.3518 H   0  0  0  0  0  0  0  0  0  0  0  0
    2.6362   -1.2322    1.8686 H   0  0  0  0  0  0  0  0  0  0  0  0
    4.9331   -1.3474   -0.5287 H   0  0  0  0  0  0  0  0  0  0  0  0
  1  2 1.00  0  0  0  0
  2  3 1.00  0  0  0  0
  4  3 2.00  0  0  0  0
  5  3 1.00  0  0  0  0
  5 11 1.00  0  0  0  0
  6  2 1.00  0  0  0  0
  6  7 1.00  0  0  0  0
  6 12 1.00  0  0  0  0
  6 13 1.00  0  0  0  0
  7 14 1.00  0  0  0  0
  8  1 1.00  0  0  0  0
  9  1 1.00  0  0  0  0
 10  2 1.00  0  0  0  0
M  END

