
 OpenBabel09152321363D

 29 30  0  0  1  0  0  0  0  0999 V2000
    0.6955    1.3065   -0.2901 O   0  0  0  0  0  0  0  0  0  0  0  0
    1.2266   -0.0040   -0.0055 C   0  0  3  0  0  0  0  0  0  0  0  0
    0.7252   -0.4412    1.3841 C   0  0  0  0  0  0  0  0  0  0  0  0
   -0.8044   -0.5411    1.3737 C   0  0  0  0  0  0  0  0  0  0  0  0
   -1.3305   -0.0552    0.0095 C   0  0  3  0  0  0  0  0  0  0  0  0
   -0.8084   -1.0623   -1.0333 C   0  0  0  0  0  0  0  0  0  0  0  0
    0.7214   -0.9796   -1.0859 C   0  0  0  0  0  0  0  0  0  0  0  0
   -0.7477    1.3556   -0.2973 C   0  0  0  0  0  0  0  0  0  0  0  0
   -1.1740    2.3979    0.7478 C   0  0  0  0  0  0  0  0  0  0  0  0
   -1.1791    1.8722   -1.6784 C   0  0  0  0  0  0  0  0  0  0  0  0
    2.7482    0.0986   -0.0304 C   0  0  0  0  0  0  0  0  0  0  0  0
    1.0254    0.2946    2.1405 H   0  0  0  0  0  0  0  0  0  0  0  0
    1.1604   -1.4042    1.6762 H   0  0  0  0  0  0  0  0  0  0  0  0
   -1.2306    0.0416    2.1974 H   0  0  0  0  0  0  0  0  0  0  0  0
   -1.1109   -1.5792    1.5528 H   0  0  0  0  0  0  0  0  0  0  0  0
   -2.4261   -0.0444    0.0090 H   0  0  0  0  0  0  0  0  0  0  0  0
   -1.2353   -0.8702   -2.0235 H   0  0  0  0  0  0  0  0  0  0  0  0
   -1.1174   -2.0810   -0.7679 H   0  0  0  0  0  0  0  0  0  0  0  0
    1.0213   -0.6272   -2.0806 H   0  0  0  0  0  0  0  0  0  0  0  0
    1.1541   -1.9775   -0.9501 H   0  0  0  0  0  0  0  0  0  0  0  0
   -0.7454    2.1897    1.7332 H   0  0  0  0  0  0  0  0  0  0  0  0
   -2.2637    2.4487    0.8403 H   0  0  0  0  0  0  0  0  0  0  0  0
   -0.8053    3.3943    0.4763 H   0  0  0  0  0  0  0  0  0  0  0  0
   -0.7532    1.2753   -2.4909 H   0  0  0  0  0  0  0  0  0  0  0  0
   -0.8113    2.8918   -1.8446 H   0  0  0  0  0  0  0  0  0  0  0  0
   -2.2692    1.8800   -1.7797 H   0  0  0  0  0  0  0  0  0  0  0  0
    3.1016    0.8270    0.7083 H   0  0  0  0  0  0  0  0  0  0  0  0
    3.0989    0.4521   -1.0067 H   0  0  0  0  0  0  0  0  0  0  0  0
    3.2211   -0.8660    0.1796 H   0  0  0  0  0  0  0  0  0  0  0  0
  1  2  1  0  0  0  0
  1  8  1  0  0  0  0
  2  3  1  0  0  0  0
  2  7  1  0  0  0  0
  2 11  1  0  0  0  0
  3  4  1  0  0  0  0
  3 12  1  0  0  0  0
  3 13  1  0  0  0  0
  4  5  1  0  0  0  0
  4 14  1  0  0  0  0
  4 15  1  0  0  0  0
  5  6  1  0  0  0  0
  5  8  1  0  0  0  0
  5 16  1  0  0  0  0
  6  7  1  0  0  0  0
  6 17  1  0  0  0  0
  6 18  1  0  0  0  0
  7 19  1  0  0  0  0
  7 20  1  0  0  0  0
  8  9  1  0  0  0  0
  8 10  1  0  0  0  0
  9 21  1  0  0  0  0
  9 22  1  0  0  0  0
  9 23  1  0  0  0  0
 10 24  1  0  0  0  0
 10 25  1  0  0  0  0
 10 26  1  0  0  0  0
 11 27  1  0  0  0  0
 11 28  1  0  0  0  0
 11 29  1  0  0  0  0
M  END
$$$$
