
 OpenBabel09162412393D

 30 30  0  0  1  0  0  0  0  0999 V2000
    0.8571    0.2905   -0.0493 C   0  0  0  0  0  0  0  0  0  0  0  0
    2.3750    0.1928   -0.0519 C   0  0  0  0  0  0  0  0  0  0  0  0
    2.9300    0.3504    1.3603 C   0  0  0  0  0  0  0  0  0  0  0  0
    4.4562    0.2573    1.3977 C   0  0  0  0  0  0  0  0  0  0  0  0
    4.9485    0.4234    2.8381 C   0  0  0  0  0  0  0  0  0  0  0  0
    6.4687    0.3665    2.9407 C   0  0  0  0  0  0  0  0  0  0  0  0
    6.9724    0.5120    4.3824 C   0  0  2  0  0  0  0  0  0  0  0  0
    6.6232    1.8323    5.0357 C   0  0  0  0  0  0  0  0  0  0  0  0
    7.8050    2.1134    5.9321 C   0  0  0  0  0  0  0  0  0  0  0  0
    8.9079    1.3317    5.2964 C   0  0  0  0  0  0  0  0  0  0  0  0
   10.0941    1.4308    5.5635 O   0  0  0  0  0  0  0  0  0  0  0  0
    8.4060    0.4592    4.3751 O   0  0  0  0  0  0  0  0  0  0  0  0
    0.4656    0.1809   -1.0648 H   0  0  0  0  0  0  0  0  0  0  0  0
    0.5279    1.2594    0.3405 H   0  0  0  0  0  0  0  0  0  0  0  0
    0.4160   -0.4952    0.5732 H   0  0  0  0  0  0  0  0  0  0  0  0
    2.7872    0.9697   -0.7060 H   0  0  0  0  0  0  0  0  0  0  0  0
    2.6746   -0.7767   -0.4658 H   0  0  0  0  0  0  0  0  0  0  0  0
    2.5038   -0.4259    2.0076 H   0  0  0  0  0  0  0  0  0  0  0  0
    2.6145    1.3182    1.7698 H   0  0  0  0  0  0  0  0  0  0  0  0
    4.8931    1.0341    0.7580 H   0  0  0  0  0  0  0  0  0  0  0  0
    4.7805   -0.7118    0.9996 H   0  0  0  0  0  0  0  0  0  0  0  0
    4.5101   -0.3648    3.4610 H   0  0  0  0  0  0  0  0  0  0  0  0
    4.5873    1.3821    3.2260 H   0  0  0  0  0  0  0  0  0  0  0  0
    6.9215    1.1425    2.3127 H   0  0  0  0  0  0  0  0  0  0  0  0
    6.8351   -0.5870    2.5357 H   0  0  0  0  0  0  0  0  0  0  0  0
    6.6164   -0.3286    4.9882 H   0  0  0  0  0  0  0  0  0  0  0  0
    5.6800    1.7852    5.5916 H   0  0  0  0  0  0  0  0  0  0  0  0
    6.5265    2.6356    4.2958 H   0  0  0  0  0  0  0  0  0  0  0  0
    7.6396    1.7499    6.9508 H   0  0  0  0  0  0  0  0  0  0  0  0
    8.0478    3.1806    5.9401 H   0  0  0  0  0  0  0  0  0  0  0  0
  1  2  1  0  0  0  0
  1 13  1  0  0  0  0
  1 14  1  0  0  0  0
  1 15  1  0  0  0  0
  2  3  1  0  0  0  0
  2 16  1  0  0  0  0
  2 17  1  0  0  0  0
  3  4  1  0  0  0  0
  3 18  1  0  0  0  0
  3 19  1  0  0  0  0
  4  5  1  0  0  0  0
  4 20  1  0  0  0  0
  4 21  1  0  0  0  0
  5  6  1  0  0  0  0
  5 22  1  0  0  0  0
  5 23  1  0  0  0  0
  6  7  1  0  0  0  0
  6 24  1  0  0  0  0
  6 25  1  0  0  0  0
  7  8  1  0  0  0  0
  7 12  1  0  0  0  0
  7 26  1  1  0  0  0
  8  9  1  0  0  0  0
  8 27  1  0  0  0  0
  8 28  1  0  0  0  0
  9 10  1  0  0  0  0
  9 29  1  0  0  0  0
  9 30  1  0  0  0  0
 10 11  2  0  0  0  0
 10 12  1  0  0  0  0
M  END
$$$$
