glutamine
 OpenBabel06142306093D

 20 19  0     0  0  0  0  0  0999 V2000
    1.0768    0.0585    0.1879 N   0  0  0  0  0  0  0  0  0  0  0  0
    2.5691    0.0951    0.0665 C   0  0  0  0  0  0  0  0  0  0  0  0
    2.9382    1.3761   -0.7098 C   0  0  0  0  0  0  0  0  0  0  0  0
    3.9933    1.5922   -1.2826 O   0  0  0  0  0  0  0  0  0  0  0  0
    1.9304    2.2870   -0.6399 O   0  0  0  0  0  0  0  0  0  0  0  0
    3.0760   -1.1937   -0.5969 C   0  0  0  0  0  0  0  0  0  0  0  0
    4.6023   -1.3252   -0.6451 C   0  0  0  0  0  0  0  0  0  0  0  0
    5.2335   -1.2323    0.7260 C   0  0  0  0  0  0  0  0  0  0  0  0
    4.6882   -1.6125    1.7543 O   0  0  0  0  0  0  0  0  0  0  0  0
    6.4921   -0.7124    0.7437 N   0  0  0  0  0  0  0  0  0  0  0  0
    0.8456   -0.6855    0.8552 H   0  0  0  0  0  0  0  0  0  0  0  0
    0.6901   -0.2772   -0.7011 H   0  0  0  0  0  0  0  0  0  0  0  0
    2.9687    0.2170    1.0778 H   0  0  0  0  0  0  0  0  0  0  0  0
    1.2040    1.8418   -0.1330 H   0  0  0  0  0  0  0  0  0  0  0  0
    2.6940   -1.2638   -1.6238 H   0  0  0  0  0  0  0  0  0  0  0  0
    2.6722   -2.0578   -0.0521 H   0  0  0  0  0  0  0  0  0  0  0  0
    5.0396   -0.5801   -1.3153 H   0  0  0  0  0  0  0  0  0  0  0  0
    4.8656   -2.3072   -1.0554 H   0  0  0  0  0  0  0  0  0  0  0  0
    6.8517   -0.1710   -0.0316 H   0  0  0  0  0  0  0  0  0  0  0  0
    6.9098   -0.5584    1.6528 H   0  0  0  0  0  0  0  0  0  0  0  0
  1 11 1.00  0  0  0  0
  1 12 1.00  0  0  0  0
  1  2 1.00  0  0  0  0
  2  6 1.00  0  0  0  0
  2  3 1.00  0  0  0  0
  2 13 1.00  0  0  0  0
  3  4 2.00  0  0  0  0
  3  5 1.00  0  0  0  0
  5 14 1.00  0  0  0  0
  6  7 1.00  0  0  0  0
  6 15 1.00  0  0  0  0
  6 16 1.00  0  0  0  0
  7  8 1.00  0  0  0  0
  7 17 1.00  0  0  0  0
  7 18 1.00  0  0  0  0
  8  9 2.00  0  0  0  0
  8 10 1.00  0  0  0  0
 10 19 1.00  0  0  0  0
 10 20 1.00  0  0  0  0
M  CHG  4  9  -1  10  1  19  1  20  1  
M  END

