glycine
 OpenBabel07232223113D

 10 9  0     0  0  0  0  0  0999 V2000
    0.9689   -0.0310    0.0798 N   0  0  0  0  0  0  0  0  0  0  0  0
    2.4448    0.1399    0.0648 C   0  0  0  0  0  0  0  0  0  0  0  0
    2.9346    0.3634    1.4931 C   0  0  0  0  0  0  0  0  0  0  0  0
    3.9989    0.8741    1.7972 O   0  0  0  0  0  0  0  0  0  0  0  0
    2.0403   -0.1134    2.3989 O   0  0  0  0  0  0  0  0  0  0  0  0
    0.6752   -0.2327   -0.8804 H   0  0  0  0  0  0  0  0  0  0  0  0
    0.5526    0.8863    0.2766 H   0  0  0  0  0  0  0  0  0  0  0  0
    2.7126    0.9981   -0.5568 H   0  0  0  0  0  0  0  0  0  0  0  0
    2.9122   -0.7699   -0.3223 H   0  0  0  0  0  0  0  0  0  0  0  0
    1.2765   -0.4588    1.8736 H   0  0  0  0  0  0  0  0  0  0  0  0
  1  2 1.00  0  0  0  0
  1  6 1.00  0  0  0  0
  1  7 1.00  0  0  0  0
  2  3 1.00  0  0  0  0
  2  8 1.00  0  0  0  0
  2  9 1.00  0  0  0  0
  3  4 2.00  0  0  0  0
  3  5 1.00  0  0  0  0
  5 10 1.00  0  0  0  0
M  END

