histidine
 OpenBabel07232223113D

 20 20  0     0  0  0  0  0  0999 V2000
    2.8549   -1.5363    0.1442 N   0  0  0  0  0  0  0  0  0  0  0  0
    2.4563   -0.0958   -0.0173 C   0  0  0  0  0  0  0  0  0  0  0  0
    0.9259   -0.0458   -0.1162 C   0  0  0  0  0  0  0  0  0  0  0  0
    0.2680    0.8725   -0.5764 O   0  0  0  0  0  0  0  0  0  0  0  0
    0.3719   -1.1699    0.4161 O   0  0  0  0  0  0  0  0  0  0  0  0
    3.0883    0.5900   -1.2360 C   0  0  0  0  0  0  0  0  0  0  0  0
    4.5760    0.6537   -1.1554 C   0  0  0  0  0  0  0  0  0  0  0  0
    5.3247   -0.5021   -1.1033 N   0  0  0  0  0  0  0  0  0  0  0  0
    6.5768   -0.1083   -1.0582 C   0  0  0  0  0  0  0  0  0  0  0  0
    6.6732    1.2539   -1.0640 N   0  0  0  0  0  0  0  0  0  0  0  0
    5.4023    1.7562   -1.1222 C   0  0  0  0  0  0  0  0  0  0  0  0
    3.8863   -1.5185    0.2271 H   0  0  0  0  0  0  0  0  0  0  0  0
    2.7527   -1.9840   -0.7757 H   0  0  0  0  0  0  0  0  0  0  0  0
    2.7322    0.4281    0.9057 H   0  0  0  0  0  0  0  0  0  0  0  0
    1.1373   -1.7415    0.6851 H   0  0  0  0  0  0  0  0  0  0  0  0
    2.6922    1.6096   -1.3301 H   0  0  0  0  0  0  0  0  0  0  0  0
    2.8033    0.0671   -2.1578 H   0  0  0  0  0  0  0  0  0  0  0  0
    7.4456   -0.7524   -1.0225 H   0  0  0  0  0  0  0  0  0  0  0  0
    7.5316    1.7877   -1.0360 H   0  0  0  0  0  0  0  0  0  0  0  0
    5.2041    2.8188   -1.1423 H   0  0  0  0  0  0  0  0  0  0  0  0
  1 12 1.00  0  0  0  0
  1 13 1.00  0  0  0  0
  1  2 1.00  0  0  0  0
  2  6 1.00  0  0  0  0
  2  3 1.00  0  0  0  0
  2 14 1.00  0  0  0  0
  3  4 2.00  0  0  0  0
  3  5 1.00  0  0  0  0
  5 15 1.00  0  0  0  0
  6  7 1.00  0  0  0  0
  6 16 1.00  0  0  0  0
  6 17 1.00  0  0  0  0
  7  8 1.00  0  0  0  0
  7 11 2.00  0  0  0  0
  8  9 2.00  0  0  0  0
  9 10 1.00  0  0  0  0
  9 18 1.00  0  0  0  0
 10 11 1.00  0  0  0  0
 10 19 1.00  0  0  0  0
 11 20 1.00  0  0  0  0
M  END

