histidine
 OpenBabel06142306093D

 20 20  0     0  0  0  0  0  0999 V2000
    2.9101   -1.1520    0.7065 N   0  0  0  0  0  0  0  0  0  0  0  0
    2.4570    0.0463   -0.0813 C   0  0  0  0  0  0  0  0  0  0  0  0
    0.9248    0.0055   -0.1464 C   0  0  0  0  0  0  0  0  0  0  0  0
    0.2261    0.6066   -0.9464 O   0  0  0  0  0  0  0  0  0  0  0  0
    0.4210   -0.7804    0.8442 O   0  0  0  0  0  0  0  0  0  0  0  0
    3.0467    0.1179   -1.4965 C   0  0  0  0  0  0  0  0  0  0  0  0
    4.5348    0.2153   -1.4953 C   0  0  0  0  0  0  0  0  0  0  0  0
    5.3004   -0.8000   -0.9644 N   0  0  0  0  0  0  0  0  0  0  0  0
    6.5477   -0.4222   -1.1269 C   0  0  0  0  0  0  0  0  0  0  0  0
    6.6251    0.8010   -1.7286 N   0  0  0  0  0  0  0  0  0  0  0  0
    5.3465    1.2241   -1.9674 C   0  0  0  0  0  0  0  0  0  0  0  0
    3.9400   -1.0643    0.7557 H   0  0  0  0  0  0  0  0  0  0  0  0
    2.8287   -1.9685    0.0859 H   0  0  0  0  0  0  0  0  0  0  0  0
    2.7272    0.9395    0.4942 H   0  0  0  0  0  0  0  0  0  0  0  0
    1.2121   -1.1504    1.3160 H   0  0  0  0  0  0  0  0  0  0  0  0
    2.6303    0.9859   -2.0242 H   0  0  0  0  0  0  0  0  0  0  0  0
    2.7479   -0.7638   -2.0778 H   0  0  0  0  0  0  0  0  0  0  0  0
    7.4253   -0.9837   -0.8345 H   0  0  0  0  0  0  0  0  0  0  0  0
    7.4764    1.2966   -1.9569 H   0  0  0  0  0  0  0  0  0  0  0  0
    5.1335    2.1713   -2.4429 H   0  0  0  0  0  0  0  0  0  0  0  0
  1 12 1.00  0  0  0  0
  1 13 1.00  0  0  0  0
  1  2 1.00  0  0  0  0
  2  6 1.00  0  0  0  0
  2  3 1.00  0  0  0  0
  2 14 1.00  0  0  0  0
  3  4 2.00  0  0  0  0
  3  5 1.00  0  0  0  0
  5 15 1.00  0  0  0  0
  6  7 1.00  0  0  0  0
  6 16 1.00  0  0  0  0
  6 17 1.00  0  0  0  0
  7  8 1.00  0  0  0  0
  7 11 2.00  0  0  0  0
  8  9 2.00  0  0  0  0
  9 10 1.00  0  0  0  0
  9 18 1.00  0  0  0  0
 10 11 1.00  0  0  0  0
 10 19 1.00  0  0  0  0
 11 20 1.00  0  0  0  0
M  END

