isoleucine
 OpenBabel07232223113D

 22 21  0     0  0  0  0  0  0999 V2000
    2.4814   -2.8857    0.1844 N   0  0  0  0  0  0  0  0  0  0  0  0
    2.2756   -2.0280    1.3747 C   0  0  0  0  0  0  0  0  0  0  0  0
    2.6785   -2.8442    2.6345 C   0  0  0  0  0  0  0  0  0  0  0  0
    2.8277   -4.0625    2.6163 O   0  0  0  0  0  0  0  0  0  0  0  0
    2.7552   -2.1589    3.7899 O   0  0  0  0  0  0  0  0  0  0  0  0
    2.9204   -0.6150    1.1967 C   0  0  0  0  0  0  0  0  0  0  0  0
    2.3308    0.0719   -0.0676 C   0  0  0  0  0  0  0  0  0  0  0  0
    2.6277    1.5617   -0.1887 C   0  0  0  0  0  0  0  0  0  0  0  0
    4.4529   -0.6162    1.1590 C   0  0  0  0  0  0  0  0  0  0  0  0
    1.9590   -3.7520    0.3545 H   0  0  0  0  0  0  0  0  0  0  0  0
    3.4518   -3.2083    0.1781 H   0  0  0  0  0  0  0  0  0  0  0  0
    1.1957   -1.8808    1.4752 H   0  0  0  0  0  0  0  0  0  0  0  0
    2.5546   -1.2077    3.7170 H   0  0  0  0  0  0  0  0  0  0  0  0
    2.6245   -0.0030    2.0582 H   0  0  0  0  0  0  0  0  0  0  0  0
    2.6949   -0.4261   -0.9740 H   0  0  0  0  0  0  0  0  0  0  0  0
    1.2397   -0.0460   -0.0582 H   0  0  0  0  0  0  0  0  0  0  0  0
    3.6923    1.7562   -0.3449 H   0  0  0  0  0  0  0  0  0  0  0  0
    2.2968    2.1069    0.7000 H   0  0  0  0  0  0  0  0  0  0  0  0
    2.0923    1.9745   -1.0518 H   0  0  0  0  0  0  0  0  0  0  0  0
    4.8459   -1.1747    0.3043 H   0  0  0  0  0  0  0  0  0  0  0  0
    4.8681   -1.0500    2.0760 H   0  0  0  0  0  0  0  0  0  0  0  0
    4.8391    0.4049    1.0946 H   0  0  0  0  0  0  0  0  0  0  0  0
  1 11 1.00  0  0  0  0
  2  3 1.00  0  0  0  0
  2  1 1.00  0  0  0  0
  2 12 1.00  0  0  0  0
  2  6 1.00  0  0  0  0
  3  4 2.00  0  0  0  0
  3  5 1.00  0  0  0  0
  5 13 1.00  0  0  0  0
  6  9 1.00  0  0  0  0
  6  7 1.00  0  0  0  0
  6 14 1.00  0  0  0  0
  7  8 1.00  0  0  0  0
  7 15 1.00  0  0  0  0
  7 16 1.00  0  0  0  0
  8 17 1.00  0  0  0  0
  8 18 1.00  0  0  0  0
  8 19 1.00  0  0  0  0
  9 20 1.00  0  0  0  0
  9 21 1.00  0  0  0  0
  9 22 1.00  0  0  0  0
 10  1 1.00  0  0  0  0
M  END

