
 OpenBabel02152212023D

 16 15  0  0  0  0  0  0  0  0999 V2000
    0.9844    0.0040    0.0820 C   0  0  0  0  0  0  0  0  0  0  0  0
    2.5132    0.0258    0.1482 C   0  0  0  0  0  0  0  0  0  0  0  0
    2.9663    0.9033    1.3174 C   0  0  0  0  0  0  0  0  0  0  0  0
    3.0902   -1.3873    0.2985 C   0  0  0  0  0  0  0  0  0  0  0  0
    2.8427   -2.3506   -0.8680 C   0  0  0  0  0  0  0  0  0  0  0  0
    2.7487   -1.8262   -2.0124 O   0  0  0  0  0  0  0  0  0  0  0  0
    2.7827   -3.5691   -0.5358 O   0  5  0  0  0  0  0  0  0  0  0  0
    0.5879    1.0202   -0.0174 H   0  0  0  0  0  0  0  0  0  0  0  0
    0.5541   -0.4396    0.9861 H   0  0  0  0  0  0  0  0  0  0  0  0
    0.6297   -0.5714   -0.7786 H   0  0  0  0  0  0  0  0  0  0  0  0
    2.8903    0.4767   -0.7781 H   0  0  0  0  0  0  0  0  0  0  0  0
    2.6202    0.4992    2.2755 H   0  0  0  0  0  0  0  0  0  0  0  0
    2.5718    1.9201    1.2178 H   0  0  0  0  0  0  0  0  0  0  0  0
    4.0585    0.9710    1.3534 H   0  0  0  0  0  0  0  0  0  0  0  0
    2.7083   -1.8442    1.2208 H   0  0  0  0  0  0  0  0  0  0  0  0
    4.1808   -1.3217    0.4088 H   0  0  0  0  0  0  0  0  0  0  0  0
  1  2  1  0  0  0  0
  1  8  1  0  0  0  0
  1  9  1  0  0  0  0
  1 10  1  0  0  0  0
  2  3  1  0  0  0  0
  2  4  1  0  0  0  0
  2 11  1  0  0  0  0
  3 12  1  0  0  0  0
  3 13  1  0  0  0  0
  3 14  1  0  0  0  0
  4  5  1  0  0  0  0
  4 15  1  0  0  0  0
  4 16  1  0  0  0  0
  5  6  2  0  0  0  0
  5  7  1  0  0  0  0
M  CHG  1   7  -1
M  END
$$$$