lysine
 OpenBabel06142306093D

 25 24  0     0  0  0  0  0  0999 V2000
    0.9578   -0.1711    0.1346 N   0  0  0  0  0  0  0  0  0  0  0  0
    2.4327   -0.0542    0.0228 C   0  0  0  0  0  0  0  0  0  0  0  0
    2.7603    1.4529   -0.0440 C   0  0  0  0  0  0  0  0  0  0  0  0
    3.6681    1.9440   -0.7009 O   0  0  0  0  0  0  0  0  0  0  0  0
    1.8652    2.1802    0.6671 O   0  0  0  0  0  0  0  0  0  0  0  0
    2.9368   -0.7740   -1.2356 C   0  0  0  0  0  0  0  0  0  0  0  0
    4.4702   -0.9011   -1.2850 C   0  0  0  0  0  0  0  0  0  0  0  0
    4.9944   -1.4642   -2.6118 C   0  0  0  0  0  0  0  0  0  0  0  0
    4.5960   -0.6874   -3.8644 C   0  0  0  0  0  0  0  0  0  0  0  0
    5.0217    0.7289   -3.7731 N   0  0  0  0  0  0  0  0  0  0  0  0
    0.7019   -1.1568    0.2415 H   0  0  0  0  0  0  0  0  0  0  0  0
    0.5181    0.1140   -0.7467 H   0  0  0  0  0  0  0  0  0  0  0  0
    2.8889   -0.4698    0.9283 H   0  0  0  0  0  0  0  0  0  0  0  0
    1.1708    1.5553    0.9975 H   0  0  0  0  0  0  0  0  0  0  0  0
    2.5736   -0.2290   -2.1142 H   0  0  0  0  0  0  0  0  0  0  0  0
    2.5107   -1.7836   -1.2854 H   0  0  0  0  0  0  0  0  0  0  0  0
    4.7991   -1.5557   -0.4698 H   0  0  0  0  0  0  0  0  0  0  0  0
    4.9638    0.0568   -1.1008 H   0  0  0  0  0  0  0  0  0  0  0  0
    4.6493   -2.4994   -2.7174 H   0  0  0  0  0  0  0  0  0  0  0  0
    6.0901   -1.5105   -2.5557 H   0  0  0  0  0  0  0  0  0  0  0  0
    3.5155   -0.6890   -4.0298 H   0  0  0  0  0  0  0  0  0  0  0  0
    5.0795   -1.1091   -4.7512 H   0  0  0  0  0  0  0  0  0  0  0  0
    4.6149    1.2242   -2.9611 H   0  0  0  0  0  0  0  0  0  0  0  0
    4.7389    1.2565   -4.6097 H   0  0  0  0  0  0  0  0  0  0  0  0
    6.0432    0.8151   -3.6940 H   0  0  0  0  0  0  0  0  0  0  0  0
  1 11 1.00  0  0  0  0
  1 12 1.00  0  0  0  0
  1  2 1.00  0  0  0  0
  2  6 1.00  0  0  0  0
  2  3 1.00  0  0  0  0
  2 13 1.00  0  0  0  0
  3  4 2.00  0  0  0  0
  3  5 1.00  0  0  0  0
  5 14 1.00  0  0  0  0
  6  7 1.00  0  0  0  0
  6 15 1.00  0  0  0  0
  6 16 1.00  0  0  0  0
  7  8 1.00  0  0  0  0
  7 17 1.00  0  0  0  0
  7 18 1.00  0  0  0  0
  8  9 1.00  0  0  0  0
  8 19 1.00  0  0  0  0
  8 20 1.00  0  0  0  0
  9 10 1.00  0  0  0  0
  9 21 1.00  0  0  0  0
  9 22 1.00  0  0  0  0
 10 23 1.00  0  0  0  0
 10 24 1.00  0  0  0  0
 10 25 1.00  0  0  0  0
M  CHG  4  10  1  23  1  24  1  25  1  
M  END

