methionine
 OpenBabel07232223113D

 20 19  0     0  0  0  0  0  0999 V2000
    1.0691   -0.0635   -0.1551 N   0  0  0  0  0  0  0  0  0  0  0  0
    2.5649   -0.1472   -0.1278 C   0  0  0  0  0  0  0  0  0  0  0  0
    3.0024   -0.9769   -1.3551 C   0  0  0  0  0  0  0  0  0  0  0  0
    4.0825   -1.5137   -1.5188 O   0  0  0  0  0  0  0  0  0  0  0  0
    2.0200   -0.9971   -2.2979 O   0  0  0  0  0  0  0  0  0  0  0  0
    3.0346   -0.7235    1.2140 C   0  0  0  0  0  0  0  0  0  0  0  0
    4.5588   -0.7210    1.3627 C   0  0  0  0  0  0  0  0  0  0  0  0
    5.0330   -1.3408    3.0097 S   0  0  0  0  0  0  0  0  0  0  0  0
    6.8277   -1.3808    2.7654 C   0  0  0  0  0  0  0  0  0  0  0  0
    0.7741    0.5541    0.6076 H   0  0  0  0  0  0  0  0  0  0  0  0
    0.6943   -0.9807    0.1180 H   0  0  0  0  0  0  0  0  0  0  0  0
    2.9563    0.8670   -0.2705 H   0  0  0  0  0  0  0  0  0  0  0  0
    1.2625   -0.4900   -1.9125 H   0  0  0  0  0  0  0  0  0  0  0  0
    2.6521   -1.7445    1.3333 H   0  0  0  0  0  0  0  0  0  0  0  0
    2.6000   -0.1201    2.0207 H   0  0  0  0  0  0  0  0  0  0  0  0
    4.9518    0.2938    1.2432 H   0  0  0  0  0  0  0  0  0  0  0  0
    5.0301   -1.3711    0.6249 H   0  0  0  0  0  0  0  0  0  0  0  0
    7.3085   -1.7655    3.6685 H   0  0  0  0  0  0  0  0  0  0  0  0
    7.2038   -0.3729    2.5722 H   0  0  0  0  0  0  0  0  0  0  0  0
    7.0884   -2.0359    1.9289 H   0  0  0  0  0  0  0  0  0  0  0  0
  1 10 1.00  0  0  0  0
  1 11 1.00  0  0  0  0
  1  2 1.00  0  0  0  0
  2  6 1.00  0  0  0  0
  2  3 1.00  0  0  0  0
  2 12 1.00  0  0  0  0
  3  4 2.00  0  0  0  0
  3  5 1.00  0  0  0  0
  5 13 1.00  0  0  0  0
  6  7 1.00  0  0  0  0
  6 14 1.00  0  0  0  0
  6 15 1.00  0  0  0  0
  7  8 1.00  0  0  0  0
  7 16 1.00  0  0  0  0
  7 17 1.00  0  0  0  0
  8  9 1.00  0  0  0  0
  9 18 1.00  0  0  0  0
  9 19 1.00  0  0  0  0
  9 20 1.00  0  0  0  0
M  END

