
 OpenBabel09032310363D

 19 19  0  0  0  0  0  0  0  0999 V2000
    1.4286   -0.1746    0.0373 C   0  0  0  0  0  0  0  0  0  0  0  0
    0.8908    1.1105    0.0047 C   0  0  0  0  0  0  0  0  0  0  0  0
   -0.4929    1.2900   -0.0583 C   0  0  0  0  0  0  0  0  0  0  0  0
   -1.3503    0.1830   -0.0827 C   0  0  0  0  0  0  0  0  0  0  0  0
   -0.7972   -1.1057   -0.0532 C   0  0  0  0  0  0  0  0  0  0  0  0
    0.5850   -1.2834    0.0054 C   0  0  0  0  0  0  0  0  0  0  0  0
   -2.8483    0.3666   -0.1526 C   0  0  0  0  0  0  0  0  0  0  0  0
   -3.3709    0.4904   -1.5837 C   0  0  0  0  0  0  0  0  0  0  0  0
   -3.1916   -0.7204   -2.3119 O   0  0  0  0  0  0  0  0  0  0  0  0
    2.5055   -0.3133    0.0893 H   0  0  0  0  0  0  0  0  0  0  0  0
    1.5501    1.9744    0.0330 H   0  0  0  0  0  0  0  0  0  0  0  0
   -0.8951    2.3005   -0.0805 H   0  0  0  0  0  0  0  0  0  0  0  0
   -1.4452   -1.9808   -0.0746 H   0  0  0  0  0  0  0  0  0  0  0  0
    1.0034   -2.2861    0.0318 H   0  0  0  0  0  0  0  0  0  0  0  0
   -3.1243    1.2641    0.4150 H   0  0  0  0  0  0  0  0  0  0  0  0
   -3.3341   -0.4802    0.3487 H   0  0  0  0  0  0  0  0  0  0  0  0
   -2.8804    1.3030   -2.1308 H   0  0  0  0  0  0  0  0  0  0  0  0
   -4.4450    0.6991   -1.5619 H   0  0  0  0  0  0  0  0  0  0  0  0
   -2.2318   -0.8401   -2.4247 H   0  0  0  0  0  0  0  0  0  0  0  0
  1  2  2  0  0  0  0
  1  6  1  0  0  0  0
  1 10  1  0  0  0  0
  2  3  1  0  0  0  0
  2 11  1  0  0  0  0
  3  4  2  0  0  0  0
  3 12  1  0  0  0  0
  4  5  1  0  0  0  0
  4  7  1  0  0  0  0
  5  6  2  0  0  0  0
  5 13  1  0  0  0  0
  6 14  1  0  0  0  0
  7  8  1  0  0  0  0
  7 15  1  0  0  0  0
  7 16  1  0  0  0  0
  8  9  1  0  0  0  0
  8 17  1  0  0  0  0
  8 18  1  0  0  0  0
  9 19  1  0  0  0  0
M  END
$$$$
