
 OpenBabel09032310373D

 10 10  0  0  0  0  0  0  0  0999 V2000
   -1.4146    0.0932    0.0053 N   0  0  0  0  0  0  0  0  0  0  0  0
   -0.6162    1.1851    0.0039 C   0  0  0  0  0  0  0  0  0  0  0  0
    0.7662    1.0943   -0.0002 C   0  0  0  0  0  0  0  0  0  0  0  0
    1.4149   -0.0928   -0.0010 N   0  0  0  0  0  0  0  0  0  0  0  0
    0.6164   -1.1846    0.0014 C   0  0  0  0  0  0  0  0  0  0  0  0
   -0.7659   -1.0938    0.0034 C   0  0  0  0  0  0  0  0  0  0  0  0
   -1.1211    2.1441    0.0061 H   0  0  0  0  0  0  0  0  0  0  0  0
    1.3922    1.9790   -0.0028 H   0  0  0  0  0  0  0  0  0  0  0  0
    1.1214   -2.1437    0.0016 H   0  0  0  0  0  0  0  0  0  0  0  0
   -1.3920   -1.9785    0.0037 H   0  0  0  0  0  0  0  0  0  0  0  0
  1  2  1  0  0  0  0
  1  6  2  0  0  0  0
  2  3  2  0  0  0  0
  2  7  1  0  0  0  0
  3  4  1  0  0  0  0
  3  8  1  0  0  0  0
  4  5  2  0  0  0  0
  5  6  1  0  0  0  0
  5  9  1  0  0  0  0
  6 10  1  0  0  0  0
M  END
$$$$
