serine
 OpenBabel07232223113D

 14 13  0     0  0  0  0  0  0999 V2000
    2.7098   -0.5398    1.4042 N   0  0  0  0  0  0  0  0  0  0  0  0
    2.2950   -0.0943    0.0280 C   0  0  0  0  0  0  0  0  0  0  0  0
    0.7722   -0.1145   -0.0694 C   0  0  0  0  0  0  0  0  0  0  0  0
    0.1278    0.0706   -1.0891 O   0  0  0  0  0  0  0  0  0  0  0  0
    0.2024   -0.3510    1.1448 O   0  0  0  0  0  0  0  0  0  0  0  0
    2.8944   -0.9962   -1.0552 C   0  0  0  0  0  0  0  0  0  0  0  0
    4.3179   -1.0192   -0.9380 O   0  0  0  0  0  0  0  0  0  0  0  0
    3.6899   -0.2500    1.5071 H   0  0  0  0  0  0  0  0  0  0  0  0
    2.8054   -1.5632    1.3750 H   0  0  0  0  0  0  0  0  0  0  0  0
    2.6308    0.9413   -0.0907 H   0  0  0  0  0  0  0  0  0  0  0  0
    0.9576   -0.4331    1.7825 H   0  0  0  0  0  0  0  0  0  0  0  0
    2.6256   -0.6565   -2.0612 H   0  0  0  0  0  0  0  0  0  0  0  0
    2.5341   -2.0253   -0.9484 H   0  0  0  0  0  0  0  0  0  0  0  0
    4.6584   -0.2257   -1.3890 H   0  0  0  0  0  0  0  0  0  0  0  0
  1  8 1.00  0  0  0  0
  1  9 1.00  0  0  0  0
  1  2 1.00  0  0  0  0
  2  6 1.00  0  0  0  0
  2  3 1.00  0  0  0  0
  2 10 1.00  0  0  0  0
  3  4 2.00  0  0  0  0
  3  5 1.00  0  0  0  0
  5 11 1.00  0  0  0  0
  6  7 1.00  0  0  0  0
  6 12 1.00  0  0  0  0
  6 13 1.00  0  0  0  0
  7 14 1.00  0  0  0  0
M  END

