serine
 OpenBabel06142306093D

 14 13  0     0  0  0  0  0  0999 V2000
    2.9965    1.3475    0.2504 N   0  0  0  0  0  0  0  0  0  0  0  0
    2.4713   -0.0354    0.0729 C   0  0  0  0  0  0  0  0  0  0  0  0
    0.9446   -0.0317    0.1369 C   0  0  0  0  0  0  0  0  0  0  0  0
    0.2665   -0.9966    0.4840 O   0  0  0  0  0  0  0  0  0  0  0  0
    0.3848    1.1385   -0.2312 O   0  0  0  0  0  0  0  0  0  0  0  0
    3.0275   -1.0021    1.1314 C   0  0  0  0  0  0  0  0  0  0  0  0
    4.4556   -1.0229    1.0819 O   0  0  0  0  0  0  0  0  0  0  0  0
    3.9928    1.2390    0.4936 H   0  0  0  0  0  0  0  0  0  0  0  0
    2.6039    1.7299    1.1212 H   0  0  0  0  0  0  0  0  0  0  0  0
    2.7805   -0.3723   -0.9258 H   0  0  0  0  0  0  0  0  0  0  0  0
    1.0889    1.7916   -0.4606 H   0  0  0  0  0  0  0  0  0  0  0  0
    2.6575   -2.0200    0.9764 H   0  0  0  0  0  0  0  0  0  0  0  0
    2.7321   -0.6915    2.1400 H   0  0  0  0  0  0  0  0  0  0  0  0
    4.7138   -1.4053    0.2232 H   0  0  0  0  0  0  0  0  0  0  0  0
  1  8 1.00  0  0  0  0
  1  9 1.00  0  0  0  0
  1  2 1.00  0  0  0  0
  2  3 1.00  0  0  0  0
  3  4 2.00  0  0  0  0
  5  3 1.00  0  0  0  0
  5 11 1.00  0  0  0  0
  6  2 1.00  0  0  0  0
  6  7 1.00  0  0  0  0
  6 12 1.00  0  0  0  0
  6 13 1.00  0  0  0  0
  7 14 1.00  0  0  0  0
 10  2 1.00  0  0  0  0
M  END

