
 OpenBabel11172217563D

 29 28  0  0  0  0  0  0  0  0999 V2000
    2.9626    0.9421    1.0088 C   0  0  0  0  0  0  0  0  0  0  0  0
    2.4636    0.0218   -0.0912 C   0  0  0  0  0  0  0  0  0  0  0  0
    3.1944    0.7149   -2.0518 Pb  0  0  0  0  0  0  0  0  0  0  0  0
    2.4613   -0.6594   -3.6092 C   0  0  0  0  0  0  0  0  0  0  0  0
    2.9323   -0.1869   -4.9734 C   0  0  0  0  0  0  0  0  0  0  0  0
    2.5035    2.7585   -2.5017 C   0  0  0  0  0  0  0  0  0  0  0  0
    0.9859    2.8113   -2.5107 C   0  0  0  0  0  0  0  0  0  0  0  0
    5.3954    0.7033   -2.0602 C   0  0  0  0  0  0  0  0  0  0  0  0
    5.9046   -0.7057   -1.8115 C   0  0  0  0  0  0  0  0  0  0  0  0
    2.5951    0.5822    1.9928 H   0  0  0  0  0  0  0  0  0  0  0  0
    2.5885    1.9729    0.8363 H   0  0  0  0  0  0  0  0  0  0  0  0
    4.0728    0.9515    1.0185 H   0  0  0  0  0  0  0  0  0  0  0  0
    1.3535    0.0111   -0.1001 H   0  0  0  0  0  0  0  0  0  0  0  0
    2.8359   -1.0096    0.0850 H   0  0  0  0  0  0  0  0  0  0  0  0
    1.3518   -0.6825   -3.5799 H   0  0  0  0  0  0  0  0  0  0  0  0
    2.8538   -1.6777   -3.4051 H   0  0  0  0  0  0  0  0  0  0  0  0
    2.5363    0.8303   -5.1759 H   0  0  0  0  0  0  0  0  0  0  0  0
    2.5652   -0.8818   -5.7572 H   0  0  0  0  0  0  0  0  0  0  0  0
    4.0416   -0.1599   -5.0009 H   0  0  0  0  0  0  0  0  0  0  0  0
    2.8945    3.0532   -3.4987 H   0  0  0  0  0  0  0  0  0  0  0  0
    2.9021    3.4551   -1.7347 H   0  0  0  0  0  0  0  0  0  0  0  0
    0.5881    2.1144   -3.2773 H   0  0  0  0  0  0  0  0  0  0  0  0
    0.6502    3.8429   -2.7498 H   0  0  0  0  0  0  0  0  0  0  0  0
    0.5932    2.5239   -1.5132 H   0  0  0  0  0  0  0  0  0  0  0  0
    5.7638    1.3851   -1.2652 H   0  0  0  0  0  0  0  0  0  0  0  0
    5.7540    1.0647   -3.0468 H   0  0  0  0  0  0  0  0  0  0  0  0
    5.5453   -1.0678   -0.8254 H   0  0  0  0  0  0  0  0  0  0  0  0
    7.0148   -0.7091   -1.8174 H   0  0  0  0  0  0  0  0  0  0  0  0
    5.5356   -1.3854   -2.6076 H   0  0  0  0  0  0  0  0  0  0  0  0
  1  2  1  0  0  0  0
  1 10  1  0  0  0  0
  1 11  1  0  0  0  0
  1 12  1  0  0  0  0
  2  3  1  0  0  0  0
  2 13  1  0  0  0  0
  2 14  1  0  0  0  0
  3  4  1  0  0  0  0
  3  6  1  0  0  0  0
  3  8  1  0  0  0  0
  4  5  1  0  0  0  0
  4 15  1  0  0  0  0
  4 16  1  0  0  0  0
  5 17  1  0  0  0  0
  5 18  1  0  0  0  0
  5 19  1  0  0  0  0
  6  7  1  0  0  0  0
  6 20  1  0  0  0  0
  6 21  1  0  0  0  0
  7 22  1  0  0  0  0
  7 23  1  0  0  0  0
  7 24  1  0  0  0  0
  8  9  1  0  0  0  0
  8 25  1  0  0  0  0
  8 26  1  0  0  0  0
  9 27  1  0  0  0  0
  9 28  1  0  0  0  0
  9 29  1  0  0  0  0
M  END
$$$$
