threonine
 OpenBabel07232223113D

 17 16  0     0  0  0  0  0  0999 V2000
    2.7892    0.7662   -1.1022 N   0  0  0  0  0  0  0  0  0  0  0  0
    2.1959   -0.1116   -0.0293 C   0  0  0  0  0  0  0  0  0  0  0  0
    0.6705    0.0130   -0.1185 C   0  0  0  0  0  0  0  0  0  0  0  0
   -0.1338   -0.2551    0.7582 O   0  0  0  0  0  0  0  0  0  0  0  0
    0.2936    0.4382   -1.3571 O   0  0  0  0  0  0  0  0  0  0  0  0
    2.7824    0.2605    1.3446 C   0  0  0  0  0  0  0  0  0  0  0  0
    2.3727   -0.6701    2.4794 C   0  0  0  0  0  0  0  0  0  0  0  0
    4.2187    0.2319    1.2418 O   0  0  0  0  0  0  0  0  0  0  0  0
    3.8107    0.6747   -0.9930 H   0  0  0  0  0  0  0  0  0  0  0  0
    2.6422    1.7420   -0.8123 H   0  0  0  0  0  0  0  0  0  0  0  0
    2.4593   -1.1417   -0.2906 H   0  0  0  0  0  0  0  0  0  0  0  0
    1.1316    0.5929   -1.8624 H   0  0  0  0  0  0  0  0  0  0  0  0
    2.5012    1.2913    1.6104 H   0  0  0  0  0  0  0  0  0  0  0  0
    2.6048   -1.7125    2.2361 H   0  0  0  0  0  0  0  0  0  0  0  0
    1.3089   -0.5945    2.7144 H   0  0  0  0  0  0  0  0  0  0  0  0
    2.9340   -0.4275    3.3896 H   0  0  0  0  0  0  0  0  0  0  0  0
    4.5085   -0.6971    1.2973 H   0  0  0  0  0  0  0  0  0  0  0  0
  2  6 1.00  0  0  0  0
  2  3 1.00  0  0  0  0
  2  1 1.00  0  0  0  0
  2 11 1.00  0  0  0  0
  3  4 2.00  0  0  0  0
  3  5 1.00  0  0  0  0
  5 12 1.00  0  0  0  0
  6  7 1.00  0  0  0  0
  6  8 1.00  0  0  0  0
  6 13 1.00  0  0  0  0
  7 14 1.00  0  0  0  0
  7 15 1.00  0  0  0  0
  7 16 1.00  0  0  0  0
  8 17 1.00  0  0  0  0
  9  1 1.00  0  0  0  0
 10  1 1.00  0  0  0  0
M  END

