tryptophan
 OpenBabel07232223113D

 27 28  0     0  0  0  0  0  0999 V2000
    0.8790    2.2096   -0.3589 N   0  0  0  0  0  0  0  0  0  0  0  0
    2.3805    2.3129   -0.4221 C   0  0  0  0  0  0  0  0  0  0  0  0
    2.7159    3.5973   -1.2130 C   0  0  0  0  0  0  0  0  0  0  0  0
    3.7429    3.8537   -1.8148 O   0  0  0  0  0  0  0  0  0  0  0  0
    1.6780    4.4813   -1.1296 O   0  0  0  0  0  0  0  0  0  0  0  0
    2.9907    1.0384   -1.0227 C   0  0  0  0  0  0  0  0  0  0  0  0
    4.4868    0.9853   -0.9818 C   0  0  0  0  0  0  0  0  0  0  0  0
    5.3117    0.9433   -2.0894 C   0  0  0  0  0  0  0  0  0  0  0  0
    6.6100    0.9466   -1.6632 N   0  0  0  0  0  0  0  0  0  0  0  0
    6.6592    0.9555   -0.2899 C   0  0  0  0  0  0  0  0  0  0  0  0
    7.7660    0.9557    0.5679 C   0  0  0  0  0  0  0  0  0  0  0  0
    7.5206    0.9881    1.9424 C   0  0  0  0  0  0  0  0  0  0  0  0
    6.2193    1.0163    2.4362 C   0  0  0  0  0  0  0  0  0  0  0  0
    5.1237    1.0081    1.5640 C   0  0  0  0  0  0  0  0  0  0  0  0
    5.3411    0.9795    0.1703 C   0  0  0  0  0  0  0  0  0  0  0  0
    0.6432    1.3894    0.2065 H   0  0  0  0  0  0  0  0  0  0  0  0
    0.5438    1.9679   -1.3003 H   0  0  0  0  0  0  0  0  0  0  0  0
    2.7311    2.4734    0.6037 H   0  0  0  0  0  0  0  0  0  0  0  0
    0.9684    4.0190   -0.6172 H   0  0  0  0  0  0  0  0  0  0  0  0
    2.6516    0.9217   -2.0600 H   0  0  0  0  0  0  0  0  0  0  0  0
    2.6143    0.1615   -0.4767 H   0  0  0  0  0  0  0  0  0  0  0  0
    5.0822    0.9500   -3.1469 H   0  0  0  0  0  0  0  0  0  0  0  0
    7.4204    0.9584   -2.2664 H   0  0  0  0  0  0  0  0  0  0  0  0
    8.7805    0.9423    0.1840 H   0  0  0  0  0  0  0  0  0  0  0  0
    8.3594    0.9947    2.6346 H   0  0  0  0  0  0  0  0  0  0  0  0
    6.0511    1.0495    3.5096 H   0  0  0  0  0  0  0  0  0  0  0  0
    4.1176    1.0320    1.9693 H   0  0  0  0  0  0  0  0  0  0  0  0
  1 16 1.00  0  0  0  0
  1 17 1.00  0  0  0  0
  1  2 1.00  0  0  0  0
  2  3 1.00  0  0  0  0
  2 18 1.00  0  0  0  0
  3  4 2.00  0  0  0  0
  3  5 1.00  0  0  0  0
  5 19 1.00  0  0  0  0
  6  2 1.00  0  0  0  0
  6  7 1.00  0  0  0  0
  6 20 1.00  0  0  0  0
  6 21 1.00  0  0  0  0
  7  8 2.00  0  0  0  0
  7 15 1.00  0  0  0  0
  8  9 1.00  0  0  0  0
  8 22 1.00  0  0  0  0
  9 10 1.00  0  0  0  0
  9 23 1.00  0  0  0  0
 10 11 1.00  0  0  0  0
 10 15 2.00  0  0  0  0
 11 12 2.00  0  0  0  0
 11 24 1.00  0  0  0  0
 12 13 1.00  0  0  0  0
 12 25 1.00  0  0  0  0
 13 14 2.00  0  0  0  0
 13 26 1.00  0  0  0  0
 14 15 1.00  0  0  0  0
 14 27 1.00  0  0  0  0
M  END

