valine
 OpenBabel07232223113D

 19 18  0     0  0  0  0  0  0999 V2000
    2.7968   -0.5586    1.2063 N   0  0  0  0  0  0  0  0  0  0  0  0
    2.3409    0.0829   -0.0712 C   0  0  0  0  0  0  0  0  0  0  0  0
    0.7915    0.1112   -0.0085 C   0  0  0  0  0  0  0  0  0  0  0  0
    0.0196    0.2449   -0.9450 O   0  0  0  0  0  0  0  0  0  0  0  0
    0.3644    0.0170    1.2822 O   0  0  0  0  0  0  0  0  0  0  0  0
    2.9225   -0.6281   -1.3179 C   0  0  0  0  0  0  0  0  0  0  0  0
    2.5329    0.0777   -2.6249 C   0  0  0  0  0  0  0  0  0  0  0  0
    4.4582   -0.6972   -1.2742 C   0  0  0  0  0  0  0  0  0  0  0  0
    3.8073   -0.4216    1.2929 H   0  0  0  0  0  0  0  0  0  0  0  0
    2.6862   -1.5742    1.1030 H   0  0  0  0  0  0  0  0  0  0  0  0
    2.6670    1.1299   -0.0442 H   0  0  0  0  0  0  0  0  0  0  0  0
    1.1866   -0.1033    1.8218 H   0  0  0  0  0  0  0  0  0  0  0  0
    2.5342   -1.6541   -1.3628 H   0  0  0  0  0  0  0  0  0  0  0  0
    2.8281    1.1322   -2.6088 H   0  0  0  0  0  0  0  0  0  0  0  0
    1.4595    0.0243   -2.8181 H   0  0  0  0  0  0  0  0  0  0  0  0
    3.0244   -0.3956   -3.4822 H   0  0  0  0  0  0  0  0  0  0  0  0
    4.8944    0.3050   -1.1971 H   0  0  0  0  0  0  0  0  0  0  0  0
    4.8530   -1.1649   -2.1831 H   0  0  0  0  0  0  0  0  0  0  0  0
    4.8171   -1.2934   -0.4304 H   0  0  0  0  0  0  0  0  0  0  0  0
  1  9 1.00  0  0  0  0
  1 10 1.00  0  0  0  0
  1  2 1.00  0  0  0  0
  2  6 1.00  0  0  0  0
  2  3 1.00  0  0  0  0
  2 11 1.00  0  0  0  0
  3  4 2.00  0  0  0  0
  3  5 1.00  0  0  0  0
  5 12 1.00  0  0  0  0
  6  7 1.00  0  0  0  0
  6  8 1.00  0  0  0  0
  6 13 1.00  0  0  0  0
  7 14 1.00  0  0  0  0
  7 15 1.00  0  0  0  0
  7 16 1.00  0  0  0  0
  8 17 1.00  0  0  0  0
  8 18 1.00  0  0  0  0
  8 19 1.00  0  0  0  0
M  END

